Circuit: * C:\Users\hilo90mhz\Documents\GitHub\electric_dump_load_controller_AC-DC\LTspice_sim\dump_load_sim.asc

A1: all pins shorted together -- ignoring.
WARNING: Specified period is not longer than the sum of Trise, Tfall, and Ton for v5.  Increasing period to 5.001e-006
WARNING: Node NC_02 is floating.
WARNING: Node NC_04 is floating.
WARNING: Node NC_21 is floating.

WARNING: Less than two connections to node N006.  This node is used by V2.
WARNING: Less than two connections to node NC_01.  This node is used by L1.
WARNING: Less than two connections to node NC_02.  This node is used by L1.
WARNING: Less than two connections to node NC_03.  This node is used by D2.
WARNING: Less than two connections to node NC_04.  This node is used by D2.
WARNING: Less than two connections to node NC_21.  This node is used by C3.
Direct Newton iteration for .op point succeeded.
Heightened Def Con from 0.000215043 +++++++++++++++++++++++++++++++++++to 0.000215043
Heightened Def Con from 0.000215043 ++++++++++++++++++to 0.000215048

Date: Mon Jan 07 21:10:29 2019
Total elapsed time: 2.496 seconds.

tnom = 27
temp = 27
method = modified trap
totiter = 155715
traniter = 155693
tranpoints = 42951
accept = 31998
rejected = 11008
matrix size = 74
fillins = 42
solver = Normal
Thread vector: 26.3/7.9[4] 5.1/2.9[4] 2.5/1.1[4] 0.5/1.2[1]  2592/500
Matrix Compiler1: 6.46 KB object code size  2.1/1.1/[0.7]
Matrix Compiler2: 6.71 KB object code size  0.6/1.0/[0.5]

